ELEMENTS
O  H  Ar  C  N
END
SPECIES
H2          H           O           O2
OH          H2O         HO2         H2O2
AR          CH3         C2H5        C2H5O2
IC5H9OH1-1  IC4H9CHO    HCN         H2CN
CO          CO2         CH4         C2H4
C2H6        c2h3oh      hocho       ch3cho
ch2cho      ho2ch2co    C8H6        C2H
C6H5        C4H2        CH2s        aC3H4
aC3H5       C5H5        C5H4CH3     ch2co
N2O         C3H3		C6H6		N2 !should be last
END
THERMO ALL
   300.000  1000.000  5000.000
O                 L 1/90O   1   00   00   00G   200.000  3500.000  1000.000    1
 2.56942078E+00-8.59741137E-05 4.19484589E-08-1.00177799E-11 1.22833691E-15    2
 2.92175791E+04 4.78433864E+00 3.16826710E+00-3.27931884E-03 6.64306396E-06    3
-6.12806624E-09 2.11265971E-12 2.91222592E+04 2.05193346E+00                   4
O2                TPIS89O   2   00   00   00G   200.000  3500.000  1000.000    1
 3.28253784E+00 1.48308754E-03-7.57966669E-07 2.09470555E-10-2.16717794E-14    2
-1.08845772E+03 5.45323129E+00 3.78245636E+00-2.99673416E-03 9.84730201E-06    3
-9.68129509E-09 3.24372837E-12-1.06394356E+03 3.65767573E+00                   4
H                 L 7/88H   1   00   00   00G   200.000  3500.000  1000.000    1
 2.50000001E+00-2.30842973E-11 1.61561948E-14-4.73515235E-18 4.98197357E-22    2
 2.54736599E+04-4.46682914E-01 2.50000000E+00 7.05332819E-13-1.99591964E-15    3
 2.30081632E-18-9.27732332E-22 2.54736599E+04-4.46682853E-01                   4
H2                TPIS78H   2   00   00   00G   200.000  3500.000  1000.000    1
 3.33727920E+00-4.94024731E-05 4.99456778E-07-1.79566394E-10 2.00255376E-14    2
-9.50158922E+02-3.20502331E+00 2.34433112E+00 7.98052075E-03-1.94781510E-05    3
 2.01572094E-08-7.37611761E-12-9.17935173E+02 6.83010238E-01                   4
OH                RUS 78O   1H   1   00   00G   200.000  3500.000  1000.000    1
 3.09288767E+00 5.48429716E-04 1.26505228E-07-8.79461556E-11 1.17412376E-14    2
 3.85865700E+03 4.47669610E+00 3.99201543E+00-2.40131752E-03 4.61793841E-06    3
-3.88113333E-09 1.36411470E-12 3.61508056E+03-1.03925458E-01                   4
H2O               L 8/89H   2O   1   00   00G   200.000  3500.000  1000.000    1
 3.03399249E+00 2.17691804E-03-1.64072518E-07-9.70419870E-11 1.68200992E-14    2
-3.00042971E+04 4.96677010E+00 4.19864056E+00-2.03643410E-03 6.52040211E-06    3
-5.48797062E-09 1.77197817E-12-3.02937267E+04-8.49032208E-01                   4
HO2               L 5/89H   1O   2   00   00G   200.000  3500.000  1000.000    1
 4.01721090E+00 2.23982013E-03-6.33658150E-07 1.14246370E-10-1.07908535E-14    2
 1.11856713E+02 3.78510215E+00 4.30179801E+00-4.74912051E-03 2.11582891E-05    3
-2.42763894E-08 9.29225124E-12 2.94808040E+02 3.71666245E+00                   4
H2O2              L 7/88H   2O   2   00   00G   200.000  3500.000  1000.000    1
 4.16500285E+00 4.90831694E-03-1.90139225E-06 3.71185986E-10-2.87908305E-14    2
-1.78617877E+04 2.91615662E+00 4.27611269E+00-5.42822417E-04 1.67335701E-05    3
-2.15770813E-08 8.62454363E-12-1.77025821E+04 3.43505074E+00                   4
AR                120186Ar  1               G   300.000  5000.000  1000.000    1
 0.02500000E+02 0.00000000E+00 0.00000000E+00 0.00000000E+00 0.00000000E+00    2
-0.07453750E+04 0.04366000E+02 0.02500000E+02 0.00000000E+00 0.00000000E+00    3
 0.00000000E+00 0.00000000E+00-0.07453750E+04 0.04366000E+02                   4
CH3               iu0702c  1 h  3    0    0 g   200.000  6000.00  1000.00      1
 0.29781206e+01 0.57978520e-02-0.19755800e-05 0.30729790e-09-0.17917416e-13    2
 0.16509513e+05 0.47224799e+01 0.36571797e+01 0.21265979e-02 0.54583883e-05    3
-0.66181003e-08 0.24657074e-11 0.16422716e+05 0.16735354e+01 0.17643935e+05    4
C2H5       8/ 4/ 4 thermc   2h   5    0    0g   300.000  5000.000 1387.000    11
 5.88784390e+00 1.03076793e-02-3.46844396e-06 5.32499257e-10-3.06512651e-14    2
 1.15065499e+04-8.49651771e+00 1.32730217e+00 1.76656753e-02-6.14926558e-06    3
-3.01143466e-10 4.38617775e-13 1.34284028e+04 1.71789216e+01                   4
C2H5O2            t10/10c  2 h  5 o  2    0 g   200.000  6000.00  1000.00      1
 8.88872432e+00 1.35833179e-02-4.91116949e-06 7.92343362e-10-4.73525704e-14    2
-7.44107388e+03-1.90789836e+01 4.50099327e+00 6.87965342e-03 4.74143971e-05    3
-6.92287127e-08 2.87395324e-11-5.39547911e+03 7.91490068e+00-3.45206633e+03    4
IC5H9OH1-1 8/24/12 thermc   5h  10o   1    0g   300.000  5000.000 1401.000    41
 1.72230301e+01 2.22593435e-02-7.57391529e-06 1.17156666e-09-6.77917454e-14    2
-3.31186152e+04-6.50020716e+01-1.94022087e+00 7.14827733e-02-5.72564918e-05    3
 2.43814756e-08-4.24851023e-12-2.68798428e+04 3.63828341e+01                   4
IC4H9CHO   8/24/12 thermc   5h  10o   1    0g   300.000  5000.000 1383.000    41
 1.70194059e+01 2.23541546e-02-7.59760895e-06 1.17496754e-09-6.79975164e-14    2
-3.69143302e+04-6.35871575e+01 8.61033163e-01 5.73441683e-02-3.59178644e-05    3
 1.13951893e-08-1.46205706e-12-3.09951354e+04 2.42264151e+01                   4
HCN               GRI/98H   1C   1N   1     G   200.000  6000.000  1000.000    1
 0.38022392E+01 0.31464228E-02-0.10632185E-05 0.16619757E-09-0.97997570E-14    2
 0.14407292E+05 0.15754601E+01 0.22589886E+01 0.10051170E-01-0.13351763E-04    3
 0.10092349E-07-0.30089028E-11 0.14712633E+05 0.89164419E+01                   4
H2CN               41687H   2C   1N   1     G   300.00   4000.000  1000.000    1
 0.52097030E+01 0.29692911E-02-0.28555891E-06-0.16355500E-09 0.30432589E-13    2
 0.27677109E+05-0.44444780E+01 0.28516610E+01 0.56952331E-02 0.10711400E-05    3
-0.16226120E-08-0.23511081E-12 0.28637820E+05 0.89927511E+01                   4
CO                TPIS79C   1O   1          G   200.000  3500.000  1000.000    1
 2.71518561E+00 2.06252743E-03-9.98825771E-07 2.30053008E-10-2.03647716E-14    2
-1.41518724E+04 7.81868772E+00 3.57953347E+00-6.10353680E-04 1.01681433E-06    3
 9.07005884E-10-9.04424499E-13-1.43440860E+04 3.50840928E+00                   4
CO2               L 7/88C   1O   2          G   200.000  3500.000  1000.000    1
 3.85746029E+00 4.41437026E-03-2.21481404E-06 5.23490188E-10-4.72084164E-14    2
-4.87591660E+04 2.27163806E+00 2.35677352E+00 8.98459677E-03-7.12356269E-06    3
 2.45919022E-09-1.43699548E-13-4.83719697E+04 9.90105222E+00                   4
CH4               L 8/88C   1H   4          G   200.000  3500.000  1000.000    1
 7.48514950E-02 1.33909467E-02-5.73285809E-06 1.22292535E-09-1.01815230E-13    2
-9.46834459E+03 1.84373180E+01 5.14987613E+00-1.36709788E-02 4.91800599E-05    3
-4.84743026E-08 1.66693956E-11-1.02466476E+04-4.64130376E+00                   4
C2H4              L 1/91C   2H   4          G   200.000  3500.000  1000.000    1
 2.03611116E+00 1.46454151E-02-6.71077915E-06 1.47222923E-09-1.25706061E-13    2
 4.93988614E+03 1.03053693E+01 3.95920148E+00-7.57052247E-03 5.70990292E-05    3
-6.91588753E-08 2.69884373E-11 5.08977593E+03 4.09733096E+00                   4
C2H6              L 8/88C   2H   6          G   200.000  3500.000  1000.000    1
 1.07188150E+00 2.16852677E-02-1.00256067E-05 2.21412001E-09-1.90002890E-13    2
-1.14263932E+04 1.51156107E+01 4.29142492E+00-5.50154270E-03 5.99438288E-05    3
-7.08466285E-08 2.68685771E-11-1.15222055E+04 2.66682316E+00                   4
c2h3oh     2/ 3/ 9 thermc   2h   4o   1    0g   300.000  5000.000 1410.000    11
 8.32598158e+00 8.03387281e-03-2.63928405e-06 3.98410726e-10-2.26551155e-14    2
-1.83221436e+04-2.02080305e+01-1.27972260e-01 3.38506073e-02-3.30644935e-05    3
 1.64858739e-08-3.19935455e-12-1.59914544e+04 2.30438601e+01                   4
hocho             l 8/88h   2c   1o   2    0g   200.000  6000.00  1000.00      1
 0.46138316e+01 0.64496364e-02-0.22908251e-05 0.36716047e-09-0.21873675e-13    2
-0.47514850e+05 0.84788383e+00 0.38983616e+01-0.35587795e-02 0.35520538e-04    3
-0.43849959e-07 0.17107769e-10-0.46770609e+05 0.73495397e+01-0.45531246e+05    4
ch3cho            l 8/88c  2 h  4 o   1   0 g   200.000  6000.00  1000.00      1
 0.54041108e+01 0.11723059e-01-0.42263137e-05 0.68372451e-09-0.40984863e-13    2
-0.22593122e+05-0.34807917e+01 0.47294595e+01-0.31932858e-02 0.47534921e-04    3
-0.57458611e-07 0.21931112e-10-0.21572878e+05 0.41030159e+01-0.19987949e+05    4
ch2cho            t03/10c  2 h  3 o  1    0 g   200.000  6000.00  1000.00      1
 6.53928338e+00 7.80238629e-03-2.76413612e-06 4.42098906e-10-2.62954290e-14    2
-1.18858659e+03-8.72091393e+00 2.79502600e+00 1.01099472e-02 1.61750645e-05    3
-3.10303145e-08 1.39436139e-11 1.62944975e+02 1.23646657e+01 1.53380440e+03    4
ho2ch2co          boz_03c   2h   3o   3    0g   300.000  5000.000 1386.000    01
 1.04146322E+01 1.12680116E-02-5.17494839E-06 1.00333285E-09-6.68165911E-14    2
-1.40955672E+04-2.27894400E+01 2.22681686E+00 3.56781380E-02-3.26401909E-05    3
 1.47651988E-08-2.64794380E-12-1.18735095E+04 1.91581197E+01                   4
C8H6  C6H5CCH     T12/06C  8.H  6.   0.   0.G   200.000  6000.000 1000.        1
 1.63582907E+01 2.11974105E-02-7.65817215E-06 1.24134505E-09-7.45327960E-14    2
 3.10375340E+04-6.22520227E+01-2.74707918E+00 7.78284438E-02-6.69709932E-05    3
 2.37972496E-08-8.43279765E-13 3.61131008E+04 3.54221257E+01 3.82082350E+04    4
C2H               L 1/91C   2H   1          G   200.000  3500.000  1000.000    1
 3.16780652E+00 4.75221902E-03-1.83787077E-06 3.04190252E-10-1.77232770E-14    2
 6.71210650E+04 6.63589475E+00 2.88965733E+00 1.34099611E-02-2.84769501E-05    3
 2.94791045E-08-1.09331511E-11 6.68393932E+04 6.22296438E+00                   4
C6H5 phenyl radi  T07/10C  6.H  5.   0.   0.G   200.000  6000.000 1000.        1
 1.09540673E+01 1.82072569E-02-6.63331157E-06 1.08125690E-09-6.51736617E-14    2
 3.51098413E+04-3.64320659E+01 4.91024498E-01 1.72669813E-02 7.02556406E-05    3
-1.13389805E-07 4.89202543E-11 3.92340510E+04 2.42505364E+01 4.05676342E+04    4
C4H2 ATcT               C  4.H  2.   0.   0.G   200.000  6000.000 1000.        1
 8.68978130E+00 6.69732229E-03-2.34774865E-06 3.72759231E-10-2.20554548E-14    2
 5.19942624E+04-2.20010465E+01-5.84768273E-01 5.33506727E-02-9.50805952E-05    3
 8.37959674E-08-2.80912179E-11 5.36111160E+04 2.09878997E+01 5.51203407E+04    4
CH2s              L S/93C   1H   2   00   00G   200.000  3500.000  1000.000    1
 2.29203842E+00 4.65588637E-03-2.01191947E-06 4.17906000E-10-3.39716365E-14    2
 5.09259997E+04 8.62650169E+00 4.19860411E+00-2.36661419E-03 8.23296220E-06    3
-6.68815981E-09 1.94314737E-12 5.04968163E+04-7.69118967E-01 9.93967200E+03    4
aC3H4 RMG               C   3H   4O   0     G   300.000  5000.000   995.043    1
 6.20209785E+00 1.16035113E-02-4.24253157E-06 6.49613596E-10-3.68734350E-14    2
 2.06143760E+04-9.81677751E+00 3.56619360E+00 4.29172814E-03 3.37754983E-05    3
-4.29088118E-08 1.54512117E-11 2.20254845E+04 7.34162599E+00                   4
aC3H5 RMG               C   3H   5O   0     G   300.000  5000.000   995.043    1
 6.96109932E+00 1.34091360E-02-4.82564565E-06 7.27992496E-10-4.07881357E-14    2
 1.71186562E+04-1.40191478E+01 3.41167769E+00 2.34104588E-03 5.00532991E-05    3
-6.16298250E-08 2.20555994E-11 1.90793181E+04 9.38984818E+00                   4
C5H5                    C   5H   5O   0     G   300.000  5000.000   995.043    1
 1.19820938E+01 1.21872945E-02-3.76158670E-06 5.45206715E-10-3.01508977E-14    2
 2.65295823E+04-4.29105872E+01 2.66966211E+00 6.42151685E-03 7.00546223E-05    3
-9.25433638E-08 3.43204252E-11 3.05215272E+04 1.27169645E+01                   4
C5H4CH3           A03/05C  6.H  7.   0.   0.G   200.000  6000.000 1000.        1
 1.28996538E+01 2.12183240E-02-7.67565006E-06 1.24495899E-09-7.47731827E-14    2
 2.12053775E+04-4.47534535E+01 5.64034275E-01 3.84201803E-02 1.94958520E-05    3
-5.95545053E-08 2.86869522E-11 2.53304225E+04 2.27464371E+01 2.72743433E+04    4
ch2co                   h   2c   2o   1    0g    300.00   5000.00 1000.00      1
 5.35869367e+00 6.95641586e-03-2.64802637e-06 4.65067592e-10-3.08641820e-14    2
-7.90294013e+03-3.98525731e+00 1.81422511e+00 1.99008590e-02-2.21416008e-05    3
 1.45028521e-08-3.98877068e-12-7.05394926e+03 1.36079359e+01                   4
N2O               L 7/88N   2O   1          G   200.000  6000.000  1000.000    1
 0.48230729E+01 0.26270251E-02-0.95850874E-06 0.16000712E-09-0.97752303E-14    2
 0.80734048E+04-0.22017207E+01 0.22571502E+01 0.11304728E-01-0.13671319E-04    3
 0.96819806E-08-0.29307182E-11 0.87417744E+04 0.10757992E+02                   4
C3H3              T 5/97C   3H   3    0    0G   200.000  6000.000              1
 7.14221880E+00 7.61902005E-03-2.67459950E-06 4.24914801E-10-2.51475415E-14    2
 3.89087427E+04-1.25848436E+01 1.35110927E+00 3.27411223E-02-4.73827135E-05    3
 3.76309808E-08-1.18540923E-11 4.01057783E+04 1.52058924E+01 4.16139977E+04    4
C6H6              D11/99C   6H   6    0    0G   300.000  3000.000              1
 0.91381245E+01 0.23854433E-01-0.88127726E-05 0.12099021E-08-0.18221503E-13    2
 0.52043462E+04-0.29115665E+02-0.48437734E+01 0.58427613E-01-0.29485855E-04    3
-0.69390440E-08 0.82125253E-11 0.91817773E+04 0.43889832E+02                   4
N2                121286N   2               G   300.000  5000.000  1000.000    1
 0.02926640E+02 0.14879768E-02-0.05684760E-05 0.10097038E-09-0.06753351E-13    2
-0.09227977E+04 0.05980528E+02 0.03298677E+02 0.14082404E-02-0.03963222E-04    3
 0.05641515E-07-0.02444854E-10-0.10208999E+04 0.03950372E+02                   4
END
REACTIONS
!elementary fwd only
2O+M=>O2+M                               1.200E+17   -1.000        .00
!elementary both ways
O+H2<=>H+OH                              3.870E+04    2.700    6260.00
DUPLICATE
!elementary test A only
O+H2<=>H+OH                              3.870E+04    0.0          0.0
DUPLICATE
!elementary test beta-int
O+H2<=>H+OH                              3.870E+04    1.0          0.0
DUPLICATE
!elementary test no-Ta
O+H2<=>H+OH                              3.870E+04    2.700        0.0
DUPLICATE
!elementary test no-beta
O+H2<=>H+OH                              3.870E+04    0.0      6260.00
DUPLICATE
!third body mix
O+H+M<=>OH+M                             5.000E+17   -1.000        .00
H2/2.00/ H2O/6.00/ AR/ .70/
!third body all unity
O+H2+M<=>H2O+M                           5.000E+17   -1.000        .00
!third body mix with last species efficiency
O+CO+M<=>CO2+M                           5.000E+17   -1.000        .00
H2/2.00/ H2O/6.00/ AR/ .70/ N2/ 5.0/
!falloff single
H+O2(+AR)<=>HO2(+AR)                   2.800E+18    -.860        .00
     LOW  /  2.300E+18    -.900  -1700.00/
     TROE/   .7346   94.00  1756.00  5182.00 /
!falloff unity
H+H(+M)<=>H2(+M)                   2.800E+18    -.860        .00
     LOW  /  2.300E+18    -.900  -1700.00/
     TROE/   .7346   94.00  1756.00  5182.00 /
!Troe unity -- added to test dE derivative (ch2cho not shared by any other falloff
!rxn), so it'll be included in the test
ch2cho(+m)<=>ch2co+H(+m) 1.43e+15 -1.50e-01 4.56e+04
low/ 6.00e+29 -3.8 43423.898/
troe/ 9.85e-01 3.93e+02 9.80e+09 5.00e+09/
!troe
2OH(+M)<=>H2O2(+M)                       7.400E+13    -.370        .00
     LOW  /  2.300E+18    -.900  -1700.00/
     TROE/   .7346   94.00  1756.00  5182.00 /
H2/2.00/ H2O/6.00/ AR/ .70/
!sri - unity
CH3+CH3(+m)<=>C2H5+H(+m) 4.989e12 0.099 1.06e4
DUPLICATE
high/ 3.802e-7 4.838 7.710e3/
sri/ 1.641 4334 2725/
!sri - mix
CH4+CH2s(+m) = CH3+CH3(+m)                     1.600E+13  0.00 -5.700E+02
high/ 3.802e-7 4.838 7.710e3/
sri/ 1.641 4334 2725/
H2/2.00/ H2O/6.00/ CH4/2.00/ CO/1.50/ CO2/2.00/ C2H6/3.00/ AR/ .70/
!sri - species
CH3+CH3(+N2)<=>C2H5+H(+N2) 4.989e12 0.099 1.06e4
DUPLICATE
high/ 3.802e-7 4.838 7.710e3/
sri/ 1.641 4334 2725/
!plog
C2H5+O2<=>C2H5O2 3.398e+53 -13.90 9.279e+03
PLOG/ 0.04 3.398e+53 -13.90 9.279e+03/
PLOG/ 1.00 9.362e+59 -15.28 1.424e+04/
PLOG/ 10.00 1.262e+60 -14.91 1.624e+04/
!lindeman
H+HCN(+M)<=>H2CN(+M)                     3.300E+13     .000        .00
      LOW /  1.400E+26   -3.400    1900.00/
H2/2.00/ H2O/6.00/ CH4/2.00/ CO/1.50/ CO2/2.00/ C2H6/3.00/ AR/ .70/
!lindeman chemically activated species
H+HCN(+N2)<=>H2CN(+N2)                     3.300E+13     .000        .00
      high /  1.400E+26   -3.400    1900.00/
!cheb
IC5H9OH1-1+H(+m)=IC4H9CHO+H(+m) 1.0e0 0.0 0.0   !
tcheb / 290.0 3000.0 /  pcheb / 0.009869232667160128 98.69232667160128 /
cheb / 5    3 /
cheb / 1.1686000e+01 -8.9255000e-01 -1.8968000e-01 /
cheb / 1.0258000e+00 8.8111000e-01 1.1329000e-01 /
cheb / -1.0827000e-01 1.5423000e-01 1.0637000e-01 /
cheb / -1.1460000e-01 -6.6920000e-02 1.3608000e-02 /
cheb / -4.7884000e-02 -6.4850000e-02 -2.4835000e-02 /
!explicit reversible
c2h3oh+hocho<=>ch3cho+hocho   2.81e-02  3.286  -4509
rev / 7.04e+04  1.209  556 /
ch2cho+O2<=>ho2ch2co 3.64e65 -21.87 1.902e4
PLOG/ 0.01 3.64e65 -21.87 1.902e4/
PLOG/ 0.10 3.64e58 -19.0 1.909e4/
PLOG/ 1.0 6.65e48 -15.55 1.746e4/
PLOG/ 10.0 4.8e38 -12.14 1.496e4/
!cheb w/ different limits and coeff size
C8H6+C2H(+m)=C6H5+C4H2(+m)  1.0E0 0.0 0.0   !NetReaction from PDepNetwork #7 (C10H7)    deltaHrxn(T=298K) = -19.317280861892925 kcal/mol
TCHEB / 290.0 3000.0 /  PCHEB / 0.001 100.0 /
CHEB / 4    2 /
CHEB / 1.3109000e+01 -1.9370000e-01 /
CHEB / -6.4157000e-01 2.8516000e-01 /
CHEB / -2.4741000e-01 -9.1641000e-02 /
CHEB / -2.8405000e-02 -1.9150000e-02 /
!test non-zero last efficiency (N2)
H+O2+M<=>HO2+M                           2.800E+18    -.860        .00
O2/ .00/ H2O/ .00/ CO/ .75/ CO2/1.50/ C2H6/1.50/ N2/ 3.00/ AR/ .00/
!September 8, 2010
!Following C3H5 PES from J.A. Miller et al.; J.Phys.Chem.A
H+aC3H4=aC3H5 1.0   0.0 0.0
PLOG / 0.001316 2.21e+61    -15.25  20076 /
PLOG / 0.039474 1.24e+52    -12.02  17839 /
PLOG / 1        4.67e+51    -11.45  21340 /
PLOG / 10       3.75e+48    -10.27  22511 /
PLOG / 100      4.23e+43    -8.61   22522 /
! plog with pressures under range
C5H5+CH3=C5H4CH3+H  1.0 0.0 0.0
DUPLICATE
PLOG / 55 1.2124e+16  -0.5779     10872.7 /
PLOG / 100    4.9108e+31  -4.8507     24772.8 /
! plog with pressures over range
C5H5+CH3=C5H4CH3+H  1.0 0.0 0.0
DUPLICATE
PLOG / 1e-6 1.2124e+16  -0.5779     10872.7 /
PLOG / 1e-5    4.9108e+31  -4.8507     24772.8 /
! and this one should test the last species (Ns) present in a reaction
H+O2+N2<=>HO2+N2                         2.800E+18    -.860        .00
! add a reaction to test the last species with non-zero net nu
! as this needs to be excluded during Jacobian calculation
N2O+O<=>N2+O2                            1.400E+12     .000   10810.00
! irreversible rxn with C6H6 not contributing to C3H3 in any other reaction
! this tests that the jacobian index determination does not pick up false derivatives
! of d_reactant / d_product in irreversible reactions
C3H3+C3H3 => C6H6                            2.000E+12   1.0        0.0    !97WAN/FRE
END
